# MODFLOW-2005 PVAL file for project VM_TR_C
33
HK_Par1   5.000000000000000E-002
HK_Par2   1.000000000000000E+002
HK_Par3   9.315742583372092E-001
HK_Par4   3.468593923069718E-001
HK_Par5   5.000000000000000E-002
SS_Par1   2.000000000000000E-002
SS_Par2   5.592000000000000E-005
SS_Par3   2.000000000000000E-006
SS_Par4   2.000000000000000E-006
SS_Par5   2.000000000000000E-006
VANI_Par1   5
VANI_Par2   1.000000000000000E+001
VANI_Par3   1.000000000000000E+000
VANI_Par4   1.000000000000000E+001
VANI_Par5   1.000000000000000E+001
Q_Par1   2.225000000000000E+000
Q_Par2   1.467000000000000E+000
Q_Par3   4.639000000000000E-001
LK_Par1   1.000000000000000E+000
LK_Par2   1.000000000000000E+000
LK_Par3   1.000000000000000E+000
IN_Par1   1.000000000000000E-001
TWU_Par1   0.8603
TWU_Par2   1.1423
TWU_Par3   1.1758
RCH_Par1   1.000000000000000E-002
RCH_Par2   3.572512614886622E-001
RCH_Par3   3.572512614886622E-001
RCH_Par4   5.000000000000000E-001
SY_Par1   6.000000000000000E-002
SY_Par2   1.311000000000000E-001
SY_Par3   1.378000000000000E-001
SY_Par4   2.658000000000000E-001
SY_Par5   1.000000000000000E-002
