# MODFLOW-2005 PARAMS file for project VM_TR_C
32
HK_Par0   4.000000000000000E+000
HK_Par1   1.300000000000000E-003
HK_Par2   2.500000000000000E+001
HK_Par3   2.200000000000000E+000
HK_Par4   4.600000000000000E-001
HK_Par5   2.900000000000000E-002
SS_Par0   1.000000000000000E-006
SS_Par1   2.000000000000000E-002
SS_Par2   5.999999999999999E-004
SS_Par3   1.000000000000000E-006
SS_Par4   9.200000000000000E-005
SS_Par5   1.000000000000000E-006
VANI_Par0   1.000000000000000E+001
VANI_Par1   5.000000000000000E+001
VANI_Par2   1.000000000000000E+001
VANI_Par3   2.000000000000000E+000
VANI_Par4   1.500000000000000E+001
VANI_Par5   1.000000000000000E+001
Q_Par1   1.790000000000000E+000
Q_Par2   1.930000000000000E+000
Q_Par3   2.240000000000000E+000
LK_Par1   1.000000000000000E+000
LK_Par2   1.000000000000000E+000
LK_Par3   1.000000000000000E+000
IN_Par1   1.000000000000000E-001
TWU_Par1   9.500000000000000E-001
TWU_Par2   1.250000000000000E+000
TWU_Par3   1.400000000000000E+000
RCH_Par1   1.000000000000000E-002
RCH_Par2   2.500000000000000E-001
RCH_Par3   5.000000000000000E-001
DRN_Par1   7.500000000000000E+001