# MODFLOW-2005 PVAL file for project ValleMexicoTR_C
38
HK_Par1   1.30E-03
HK_Par2   25
HK_Par3   2.2
HK_Par4   0.46
HK_Par5   0.0289
HK_Par6   8.5
SS_Par1   2.000000000000000E-002
SS_Par2   1.000000000000000E-003
SS_Par3   1.000000000000000E-006
SS_Par4   9.155850838431333E-005
SS_Par5   1.000000000000000E-006
SS_Par6   1.000000000000000E-006
SY_Par1   6.000000000000000E-002
SY_Par2   1.500000000000000E-001
SY_Par3   1.934480212596650E-002
SY_Par4   5.003044692487115E-002
SY_Par5   1.000000000000000E-002
SY_Par6   1.000000000000000E-002
VANI_Par1   50
VANI_Par2   10
VANI_Par3   2
VANI_Par4   15
VANI_Par5   10
VANI_Par6   10
Q_Par1   2.000000000000000E+000
Q_Par2   1.500000000000000E+000
Q_Par3   1.000000000000000E+000
Q_Par4   6.965096552076335E-001
Q_Par5   6.613083433327911E-001
Q_Par6   4.265920803864127E-001
Q_Par7   1.000000000000000E+000
Q_Par8   1.000000000000000E+000
Q_Par9   1.000000000000000E+000
RCH_Par1   1.000000000000000E-002
RCH_Par2   1.000000000000000E-001
RCH_Par3   5.000000000000000E-001
RCH_Par4   0.000000000000000E+000
DRN_Par1   1.296000000000000E-002
