# HOB package for  MODFLOW-2005, generated by Flopy.
      6764         0         0        42    -1e+06
         1
C_113_B                 2         84         50        -27                  0.0    -0.0560    -0.1520     0.0000   # DATASET 3 - Observation 1
         2                                                                                                         # DATASET 5 - Observation 1
C_113_B_1              22                  0.0  2225.8701                                                          # DATASET 6 - Observation 1.1
C_113_B_2              34                  0.0  2224.3401                                                          # DATASET 6 - Observation 1.2
C_113_B_3              43                  0.0  2223.1201                                                          # DATASET 6 - Observation 1.3
C_113_B_4              56                  0.0  2221.5400                                                          # DATASET 6 - Observation 1.4
C_113_B_5              68                  0.0  2220.2700                                                          # DATASET 6 - Observation 1.5
C_113_B_6              80                  0.0  2219.6201                                                          # DATASET 6 - Observation 1.6
C_113_B_7              92                  0.0  2217.8999                                                          # DATASET 6 - Observation 1.7
C_113_B_8             104                  0.0  2217.1699                                                          # DATASET 6 - Observation 1.8
C_113_B_9             116                  0.0  2220.3799                                                          # DATASET 6 - Observation 1.9
C_113_B_10            130                  0.0  2221.7200                                                          # DATASET 6 - Observation 1.10
C_113_B_11            140                  0.0  2225.8799                                                          # DATASET 6 - Observation 1.11
C_113_B_12            164                  0.0  2234.1899                                                          # DATASET 6 - Observation 1.12
C_113_B_13            177                  0.0  2234.9800                                                          # DATASET 6 - Observation 1.13
C_113_B_14            201                  0.0  2233.3601                                                          # DATASET 6 - Observation 1.14
C_113_B_15            216                  0.0  2200.0000                                                          # DATASET 6 - Observation 1.15
C_113_B_16            228                  0.0  2236.6101                                                          # DATASET 6 - Observation 1.16
C_113_B_17            238                  0.0  2241.4299                                                          # DATASET 6 - Observation 1.17
C_113_B_18            250                  0.0  2239.0400                                                          # DATASET 6 - Observation 1.18
C_113_B_19            262                  0.0  2238.6699                                                          # DATASET 6 - Observation 1.19
C_113_B_20            274                  0.0  2240.2300                                                          # DATASET 6 - Observation 1.20
C_113_B_21            286                  0.0  2240.1799                                                          # DATASET 6 - Observation 1.21
C_113_B_22            298                  0.0  2239.8999                                                          # DATASET 6 - Observation 1.22
C_113_B_23            310                  0.0  2233.9900                                                          # DATASET 6 - Observation 1.23
C_113_B_24            322                  0.0  2236.9800                                                          # DATASET 6 - Observation 1.24
C_113_B_25            334                  0.0  2236.0000                                                          # DATASET 6 - Observation 1.25
C_113_B_26            346                  0.0  2235.4199                                                          # DATASET 6 - Observation 1.26
C_113_B_27            358                  0.0  2232.7700                                                          # DATASET 6 - Observation 1.27
C_136_B                 2         29         42        -15                  0.0     0.1340    -0.4520     0.0000   # DATASET 3 - Observation 2
         2                                                                                                         # DATASET 5 - Observation 2
C_136_B_1              92                  0.0  2216.9900                                                          # DATASET 6 - Observation 2.1
C_136_B_2             104                  0.0  2219.8701                                                          # DATASET 6 - Observation 2.2
C_136_B_3             116                  0.0  2218.1599                                                          # DATASET 6 - Observation 2.3
C_136_B_4             130                  0.0  2223.2300                                                          # DATASET 6 - Observation 2.4
C_136_B_5             140                  0.0  2223.5400                                                          # DATASET 6 - Observation 2.5
C_136_B_6             164                  0.0  2227.7200                                                          # DATASET 6 - Observation 2.6
C_136_B_7             189                  0.0  2225.5400                                                          # DATASET 6 - Observation 2.7
C_136_B_8             201                  0.0  2224.1399                                                          # DATASET 6 - Observation 2.8
C_136_B_9             216                  0.0  2224.0200                                                          # DATASET 6 - Observation 2.9
C_136_B_10            228                  0.0  2244.4500                                                          # DATASET 6 - Observation 2.10
C_136_B_11            238                  0.0  2222.1101                                                          # DATASET 6 - Observation 2.11
C_136_B_12            250                  0.0  2235.9900                                                          # DATASET 6 - Observation 2.12
C_136_B_13            262                  0.0  2235.1001                                                          # DATASET 6 - Observation 2.13
C_136_B_14            286                  0.0  2228.3000                                                          # DATASET 6 - Observation 2.14
C_136_B_15            298                  0.0  2227.5400                                                          # DATASET 6 - Observation 2.15
C_2002                  2         93         78        -28                  0.0     0.0020    -0.4420     0.0000   # DATASET 3 - Observation 3
         2                                                                                                         # DATASET 5 - Observation 3
C_2002_1               22                  0.0  2217.5500                                                          # DATASET 6 - Observation 3.1
C_2002_2               34                  0.0  2215.5200                                                          # DATASET 6 - Observation 3.2
C_2002_3               43                  0.0  2213.7500                                                          # DATASET 6 - Observation 3.3
C_2002_4               56                  0.0  2212.2800                                                          # DATASET 6 - Observation 3.4
C_2002_5               68                  0.0  2210.4800                                                          # DATASET 6 - Observation 3.5
C_2002_6               80                  0.0  2210.2500                                                          # DATASET 6 - Observation 3.6
C_2002_7               92                  0.0  2207.9800                                                          # DATASET 6 - Observation 3.7
C_2002_8              104                  0.0  2207.3899                                                          # DATASET 6 - Observation 3.8
C_2002_9              116                  0.0  2206.8101                                                          # DATASET 6 - Observation 3.9
C_2002_10             130                  0.0  2205.9800                                                          # DATASET 6 - Observation 3.10
C_2002_11             140                  0.0  2205.4700                                                          # DATASET 6 - Observation 3.11
C_2002_12             152                  0.0  2202.9500                                                          # DATASET 6 - Observation 3.12
C_2002_13             164                  0.0  2204.3101                                                          # DATASET 6 - Observation 3.13
C_2002_14             177                  0.0  2208.5000                                                          # DATASET 6 - Observation 3.14
C_2002_15             201                  0.0  2208.5000                                                          # DATASET 6 - Observation 3.15
C_2002_16             216                  0.0  2208.5000                                                          # DATASET 6 - Observation 3.16
C_2002_17             228                  0.0  2200.2200                                                          # DATASET 6 - Observation 3.17
C_2002_18             238                  0.0  2203.8799                                                          # DATASET 6 - Observation 3.18
C_2002_19             250                  0.0  2203.1001                                                          # DATASET 6 - Observation 3.19
C_2002_20             262                  0.0  2202.5000                                                          # DATASET 6 - Observation 3.20
C_2002_21             274                  0.0  2202.1001                                                          # DATASET 6 - Observation 3.21
C_2002_22             286                  0.0  2201.5400                                                          # DATASET 6 - Observation 3.22
C_2002_23             298                  0.0  2200.7700                                                          # DATASET 6 - Observation 3.23
C_2002_24             310                  0.0  2200.1001                                                          # DATASET 6 - Observation 3.24
C_2002_25             322                  0.0  2199.2300                                                          # DATASET 6 - Observation 3.25
C_2002_26             334                  0.0  2199.1001                                                          # DATASET 6 - Observation 3.26
C_2002_27             346                  0.0  2198.3301                                                          # DATASET 6 - Observation 3.27
C_2002_28             358                  0.0  2195.7400                                                          # DATASET 6 - Observation 3.28
C_2004                  2         95         69        -22                  0.0    -0.2400     0.0140     0.0000   # DATASET 3 - Observation 4
         2                                                                                                         # DATASET 5 - Observation 4
C_2004_1               22                  0.0  2254.7800                                                          # DATASET 6 - Observation 4.1
C_2004_2               34                  0.0  2252.3301                                                          # DATASET 6 - Observation 4.2
C_2004_3               56                  0.0  2250.0901                                                          # DATASET 6 - Observation 4.3
C_2004_4               68                  0.0  2247.6599                                                          # DATASET 6 - Observation 4.4
C_2004_5               80                  0.0  2245.3799                                                          # DATASET 6 - Observation 4.5
C_2004_6               92                  0.0  2245.3999                                                          # DATASET 6 - Observation 4.6
C_2004_7              116                  0.0  2242.3601                                                          # DATASET 6 - Observation 4.7
C_2004_8              130                  0.0  2242.8401                                                          # DATASET 6 - Observation 4.8
C_2004_9              164                  0.0  2240.1699                                                          # DATASET 6 - Observation 4.9
C_2004_10             177                  0.0  2243.2600                                                          # DATASET 6 - Observation 4.10
C_2004_11             201                  0.0  2237.6001                                                          # DATASET 6 - Observation 4.11
C_2004_12             228                  0.0  2236.8401                                                          # DATASET 6 - Observation 4.12
C_2004_13             238                  0.0  2235.1399                                                          # DATASET 6 - Observation 4.13
C_2004_14             250                  0.0  2234.5100                                                          # DATASET 6 - Observation 4.14
C_2004_15             262                  0.0  2233.8401                                                          # DATASET 6 - Observation 4.15
C_2004_16             274                  0.0  2239.5200                                                          # DATASET 6 - Observation 4.16
C_2004_17             286                  0.0  2236.7400                                                          # DATASET 6 - Observation 4.17
C_2004_18             298                  0.0  2236.7000                                                          # DATASET 6 - Observation 4.18
C_2004_19             310                  0.0  2236.2000                                                          # DATASET 6 - Observation 4.19
C_2004_20             322                  0.0  2235.1299                                                          # DATASET 6 - Observation 4.20
C_2004_21             334                  0.0  2236.0100                                                          # DATASET 6 - Observation 4.21
C_2004_22             358                  0.0  2231.4399                                                          # DATASET 6 - Observation 4.22
C_2157_V                2         92         87        -27                  0.0     0.4440    -0.2840     0.0000   # DATASET 3 - Observation 5
         2                                                                                                         # DATASET 5 - Observation 5
C_2157_V_1             22                  0.0  2229.8401                                                          # DATASET 6 - Observation 5.1
C_2157_V_2             34                  0.0  2227.6899                                                          # DATASET 6 - Observation 5.2
C_2157_V_3             43                  0.0  2225.9800                                                          # DATASET 6 - Observation 5.3
C_2157_V_4             56                  0.0  2224.5200                                                          # DATASET 6 - Observation 5.4
C_2157_V_5             68                  0.0  2222.5400                                                          # DATASET 6 - Observation 5.5
C_2157_V_6             80                  0.0  2221.5200                                                          # DATASET 6 - Observation 5.6
C_2157_V_7             92                  0.0  2220.4399                                                          # DATASET 6 - Observation 5.7
C_2157_V_8            104                  0.0  2219.5200                                                          # DATASET 6 - Observation 5.8
C_2157_V_9            116                  0.0  2219.1001                                                          # DATASET 6 - Observation 5.9
C_2157_V_10           130                  0.0  2219.0801                                                          # DATASET 6 - Observation 5.10
C_2157_V_11           152                  0.0  2216.3601                                                          # DATASET 6 - Observation 5.11
C_2157_V_12           164                  0.0  2216.5000                                                          # DATASET 6 - Observation 5.12
C_2157_V_13           177                  0.0  2215.1001                                                          # DATASET 6 - Observation 5.13
C_2157_V_14           201                  0.0  2207.3999                                                          # DATASET 6 - Observation 5.14
C_2157_V_15           216                  0.0  2218.7700                                                          # DATASET 6 - Observation 5.15
C_2157_V_16           228                  0.0  2212.3601                                                          # DATASET 6 - Observation 5.16
C_2157_V_17           238                  0.0  2212.1399                                                          # DATASET 6 - Observation 5.17
C_2157_V_18           250                  0.0  2209.3601                                                          # DATASET 6 - Observation 5.18
C_2157_V_19           262                  0.0  2215.6699                                                          # DATASET 6 - Observation 5.19
C_2157_V_20           274                  0.0  2209.5400                                                          # DATASET 6 - Observation 5.20
C_2157_V_21           286                  0.0  2210.6699                                                          # DATASET 6 - Observation 5.21
C_2157_V_22           298                  0.0  2206.3999                                                          # DATASET 6 - Observation 5.22
C_2157_V_23           310                  0.0  2206.2100                                                          # DATASET 6 - Observation 5.23
C_2157_V_24           322                  0.0  2205.8701                                                          # DATASET 6 - Observation 5.24
C_2157_V_25           334                  0.0  2213.1699                                                          # DATASET 6 - Observation 5.25
C_2157_V_26           346                  0.0  2204.8000                                                          # DATASET 6 - Observation 5.26
C_2157_V_27           358                  0.0  2212.8401                                                          # DATASET 6 - Observation 5.27
C_2193                  2         84         63        -17                  0.0     0.1800     0.3520     0.0000   # DATASET 3 - Observation 6
         2                                                                                                         # DATASET 5 - Observation 6
C_2193_1               22                  0.0  2199.6101                                                          # DATASET 6 - Observation 6.1
C_2193_2               56                  0.0  2188.6499                                                          # DATASET 6 - Observation 6.2
C_2193_3               68                  0.0  2187.6299                                                          # DATASET 6 - Observation 6.3
C_2193_4               92                  0.0  2187.9800                                                          # DATASET 6 - Observation 6.4
C_2193_5              104                  0.0  2185.2100                                                          # DATASET 6 - Observation 6.5
C_2193_6              116                  0.0  2184.1499                                                          # DATASET 6 - Observation 6.6
C_2193_7              140                  0.0  2180.7200                                                          # DATASET 6 - Observation 6.7
C_2193_8              164                  0.0  2183.9900                                                          # DATASET 6 - Observation 6.8
C_2193_9              177                  0.0  2184.6001                                                          # DATASET 6 - Observation 6.9
C_2193_10             201                  0.0  2179.2400                                                          # DATASET 6 - Observation 6.10
C_2193_11             238                  0.0  2163.8799                                                          # DATASET 6 - Observation 6.11
C_2193_12             262                  0.0  2162.2600                                                          # DATASET 6 - Observation 6.12
C_2193_13             298                  0.0  2161.0701                                                          # DATASET 6 - Observation 6.13
C_2193_14             322                  0.0  2157.3401                                                          # DATASET 6 - Observation 6.14
C_2193_15             334                  0.0  2156.0901                                                          # DATASET 6 - Observation 6.15
C_2193_16             346                  0.0  2155.0801                                                          # DATASET 6 - Observation 6.16
C_2193_17             358                  0.0  2154.2900                                                          # DATASET 6 - Observation 6.17
C_2239                  2         95         93        -26                  0.0     0.3700     0.4600     0.0000   # DATASET 3 - Observation 7
         2                                                                                                         # DATASET 5 - Observation 7
C_2239_1               22                  0.0  2242.9600                                                          # DATASET 6 - Observation 7.1
C_2239_2               34                  0.0  2240.8501                                                          # DATASET 6 - Observation 7.2
C_2239_3               43                  0.0  2239.0400                                                          # DATASET 6 - Observation 7.3
C_2239_4               56                  0.0  2237.6101                                                          # DATASET 6 - Observation 7.4
C_2239_5               68                  0.0  2235.5500                                                          # DATASET 6 - Observation 7.5
C_2239_6               80                  0.0  2234.3999                                                          # DATASET 6 - Observation 7.6
C_2239_7               92                  0.0  2233.3601                                                          # DATASET 6 - Observation 7.7
C_2239_8              104                  0.0  2232.5601                                                          # DATASET 6 - Observation 7.8
C_2239_9              116                  0.0  2232.0200                                                          # DATASET 6 - Observation 7.9
C_2239_10             130                  0.0  2231.2200                                                          # DATASET 6 - Observation 7.10
C_2239_11             140                  0.0  2230.5200                                                          # DATASET 6 - Observation 7.11
C_2239_12             152                  0.0  2230.0100                                                          # DATASET 6 - Observation 7.12
C_2239_13             164                  0.0  2229.5801                                                          # DATASET 6 - Observation 7.13
C_2239_14             177                  0.0  2239.0400                                                          # DATASET 6 - Observation 7.14
C_2239_15             201                  0.0  2228.9099                                                          # DATASET 6 - Observation 7.15
C_2239_16             238                  0.0  2229.7400                                                          # DATASET 6 - Observation 7.16
C_2239_17             250                  0.0  2228.6899                                                          # DATASET 6 - Observation 7.17
C_2239_18             262                  0.0  2228.4700                                                          # DATASET 6 - Observation 7.18
C_2239_19             274                  0.0  2229.6399                                                          # DATASET 6 - Observation 7.19
C_2239_20             286                  0.0  2227.9800                                                          # DATASET 6 - Observation 7.20
C_2239_21             298                  0.0  2227.1499                                                          # DATASET 6 - Observation 7.21
C_2239_22             310                  0.0  2227.0100                                                          # DATASET 6 - Observation 7.22
C_2239_23             322                  0.0  2226.1299                                                          # DATASET 6 - Observation 7.23
C_2239_24             334                  0.0  2225.7700                                                          # DATASET 6 - Observation 7.24
C_2239_25             346                  0.0  2225.7400                                                          # DATASET 6 - Observation 7.25
C_2239_26             358                  0.0  2224.3701                                                          # DATASET 6 - Observation 7.26
C_245V2                 2         89        126        -10                  0.0    -0.2740    -0.4100     0.0000   # DATASET 3 - Observation 8
         2                                                                                                         # DATASET 5 - Observation 8
C_245V2_1             216                  0.0  2203.8999                                                          # DATASET 6 - Observation 8.1
C_245V2_2             228                  0.0  2202.5300                                                          # DATASET 6 - Observation 8.2
C_245V2_3             238                  0.0  2201.2400                                                          # DATASET 6 - Observation 8.3
C_245V2_4             250                  0.0  2200.5500                                                          # DATASET 6 - Observation 8.4
C_245V2_5             262                  0.0  2209.8701                                                          # DATASET 6 - Observation 8.5
C_245V2_6             274                  0.0  2199.8999                                                          # DATASET 6 - Observation 8.6
C_245V2_7             286                  0.0  2211.1699                                                          # DATASET 6 - Observation 8.7
C_245V2_8             298                  0.0  2199.7900                                                          # DATASET 6 - Observation 8.8
C_245V2_9             310                  0.0  2208.6101                                                          # DATASET 6 - Observation 8.9
C_245V2_10            334                  0.0  2206.8501                                                          # DATASET 6 - Observation 8.10
C_2599                  2         77         71        -25                  0.0     0.3720     0.0360     0.0000   # DATASET 3 - Observation 9
         2                                                                                                         # DATASET 5 - Observation 9
C_2599_1               22                  0.0  2200.7500                                                          # DATASET 6 - Observation 9.1
C_2599_2               34                  0.0  2198.1899                                                          # DATASET 6 - Observation 9.2
C_2599_3               43                  0.0  2196.4399                                                          # DATASET 6 - Observation 9.3
C_2599_4               56                  0.0  2194.1101                                                          # DATASET 6 - Observation 9.4
C_2599_5               68                  0.0  2191.9299                                                          # DATASET 6 - Observation 9.5
C_2599_6               80                  0.0  2190.5601                                                          # DATASET 6 - Observation 9.6
C_2599_7               92                  0.0  2189.3701                                                          # DATASET 6 - Observation 9.7
C_2599_8              104                  0.0  2187.9199                                                          # DATASET 6 - Observation 9.8
C_2599_9              116                  0.0  2186.2500                                                          # DATASET 6 - Observation 9.9
C_2599_10             130                  0.0  2185.1899                                                          # DATASET 6 - Observation 9.10
C_2599_11             140                  0.0  2184.5701                                                          # DATASET 6 - Observation 9.11
C_2599_12             164                  0.0  2183.7600                                                          # DATASET 6 - Observation 9.12
C_2599_13             177                  0.0  2182.9199                                                          # DATASET 6 - Observation 9.13
C_2599_14             201                  0.0  2181.5601                                                          # DATASET 6 - Observation 9.14
C_2599_15             238                  0.0  2174.0100                                                          # DATASET 6 - Observation 9.15